/*--------------------------------*- C++ -*----------------------------------*\
  =========                 |
  \\      /  F ield         | OpenFOAM: The Open Source CFD Toolbox
   \\    /   O peration     | Website:  https://openfoam.org
    \\  /    A nd           | Version:  6
     \\/     M anipulation  |
\*---------------------------------------------------------------------------*/
FoamFile
{
    version     2.0;
    format      ascii;
    class       polyBoundaryMesh;
    location    "constant/polyMesh";
    object      boundary;
}
// * * * * * * * * * * * * * * * * * * * * * * * * * * * * * * * * * * * * * //

6
(
    inlet
    {
        type            patch;
        nFaces          50;
        startFace       76630;
    }
    outlet
    {
        type            patch;
        nFaces          50;
        startFace       76680;
    }
    upperWall
    {
        type            wall;
        inGroups        1(wall);
        nFaces          800;
        startFace       76730;
    }
    lowerWall
    {
        type            wall;
        inGroups        1(wall);
        nFaces          1040;
        startFace       77530;
    }
    front
    {
        type            empty;
        inGroups        1(empty);
        nFaces          38800;
        startFace       78570;
    }
    back
    {
        type            empty;
        inGroups        1(empty);
        nFaces          38800;
        startFace       117370;
    }
)

// ************************************************************************* //
