/*--------------------------------*- C++ -*----------------------------------*\
  =========                 |
  \\      /  F ield         | OpenFOAM: The Open Source CFD Toolbox
   \\    /   O peration     | Website:  https://openfoam.org
    \\  /    A nd           | Version:  6
     \\/     M anipulation  |
\*---------------------------------------------------------------------------*/
FoamFile
{
    version     2.0;
    format      ascii;
    class       dictionary;
    location    "system";
    object      sample1;
}
// * * * * * * * * * * * * * * * * * * * * * * * * * * * * * * * * * * * * * //

        type            fieldValueDelta;
        libs ("libfieldFunctionObjects.so");
        operation       subtract;

        region1
        {
            type            surfaceFieldValue;
            libs            ("libfieldFunctionObjects.so");
            log             false;
            writeControl    timeStep;
            writeFields     false;
            regionType      sampledSurface;
            name            plane300mm;
	    sampledSurfaceDict
	    {
 	        type    	plane;
		source		cells;
		planeType	pointAndNormal;
		pointAndNormalDict
		{
			point	(0.3 0.025 0);
			normal	(0.3 0 0);
		}
	    }
            operation       areaAverage;
            fields          ( p );
        }

        region2
        {
            type            surfaceFieldValue;
            libs            ("libfieldFunctionObjects.so");
            log             false;
            writeControl    timeStep;
            writeFields     false;
            regionType      sampledSurface;
            name            plane600mm;
	    sampledSurfaceDict
	    {
 	        type    	plane;
		source		cells;
		planeType	pointAndNormal;
		pointAndNormalDict
		{
			point	(0.6 0.025 0);
			normal	(0.6 0 0);
		}
	    }
            operation       areaAverage;
            fields          ( p );
        }



// ************************************************************************* //
