/*--------------------------------*- C++ -*----------------------------------*\
  =========                 |
  \\      /  F ield         | OpenFOAM: The Open Source CFD Toolbox
   \\    /   O peration     | Website:  https://openfoam.org
    \\  /    A nd           | Version:  6
     \\/     M anipulation  |
\*---------------------------------------------------------------------------*/
FoamFile
{
    version     2.0;
    format      ascii;
    class       volScalarField;
    location    "0";
    object      alphat;
}
// * * * * * * * * * * * * * * * * * * * * * * * * * * * * * * * * * * * * * //

dimensions      [1 -1 -1 0 0 0 0];

internalField   uniform 0;

boundaryField
{
    inlet
    {
        type            calculated;
        value           uniform 0;
    }
    outlet
    {
        type            calculated;
        value           uniform 0;
    }
    upperWallInlet
    {
        type            compressible::alphatJayatillekeWallFunction;
        value           uniform 0;
    }
    upperWallRibs
    {
        type            compressible::alphatJayatillekeWallFunction;
        value           uniform 0;
    }
    upperWallOutlet
    {
        type            compressible::alphatJayatillekeWallFunction;
        value           uniform 0;
    }
    lowerWallInlet
    {
        type            compressible::alphatJayatillekeWallFunction;
        value           uniform 0;
    }
    lowerWallRibs1
    {
        type            compressible::alphatJayatillekeWallFunction;
        value           uniform 0;
    }
    lowerWallRibs2
    {
        type            compressible::alphatJayatillekeWallFunction;
        value           uniform 0;
    }
    lowerWallOutlet
    {
        type            compressible::alphatJayatillekeWallFunction;
        value           uniform 0;
    }
    front
    {
        type            empty;
    }
    back
    {
        type            empty;
    }
}


// ************************************************************************* //
