/*--------------------------------*- C++ -*----------------------------------*\
  =========                 |
  \\      /  F ield         | OpenFOAM: The Open Source CFD Toolbox
   \\    /   O peration     | Website:  https://openfoam.org
    \\  /    A nd           | Version:  6
     \\/     M anipulation  |
\*---------------------------------------------------------------------------*/
FoamFile
{
    version     2.0;
    format      ascii;
    class       volScalarField;
    location    "0";
    object      T;
}
// * * * * * * * * * * * * * * * * * * * * * * * * * * * * * * * * * * * * * //

dimensions      [0 0 0 1 0 0 0];

internalField   uniform 293;

boundaryField
{
    inlet
    {
        type            fixedValue;
        value           uniform 293;
    }
    outlet
    {
        type            zeroGradient;
    }
    upperWallInlet
    {
        type            zeroGradient;
    }
    upperWallRibs
    {
        type            zeroGradient;
    }
    upperWallOutlet
    {
        type            zeroGradient;
    }
    lowerWallInlet
    {
        type            zeroGradient;
    }
    lowerWallRibs1
    {
        type            zeroGradient;
    }
    lowerWallRibs2
    {
        type            externalWallHeatFluxTemperature;
        mode            flux;
        q               uniform 100000;
        relaxation      1.0;
        kappaMethod     fluidThermo;
        value           uniform 293;
    }
    lowerWallOutlet
    {
        type            zeroGradient;
    }
    front
    {
        type            empty;
    }
    back
    {
        type            empty;
    }
}


// ************************************************************************* //
